      24
 i =        1, E =      -144.4503697105
  O        -1.2692962719        0.6369161769       -0.0081220004
  O        -3.6944772223        1.0367371555        0.3079621453
  S        -2.5606789878        0.1562918465        0.4347401996
  H         1.3281699213        1.9891668827        0.4858813493
  H         0.7765771871        1.0644767782       -1.9588976518
  H         6.1402011383        1.9520379154       -1.0675018882
  H         5.7720586707        1.3345023779       -2.7023574671
  H         5.4173345152        3.0335656291       -2.2887578138
 Cl        -3.2247269245       -4.0416682369        0.4994900293
 Cl        -2.6630657316       -2.8969656412        3.3904188847
 Cl        -2.1415344640        0.2669263735        3.4724259908
 Cl        -3.1746746424       -1.8291964883       -1.8223974218
  C        -2.9374263635       -2.4386065776        0.7328511014
  C        -2.6755033457       -1.9065193084        2.0767758444
  C        -2.4580098992       -0.5696839832        2.0914166669
  C         2.0287706616        1.8113312198       -0.3311089902
  C         1.7518936951        1.3470293308       -1.5594503390
  C        -2.9120494895       -1.4902759134       -0.2339347065
  N         4.1093306179        1.5676149549       -1.4404989086
  C         3.0205787027        1.2442048175       -2.3545582130
  O         3.1868696673        0.9345746869       -3.5131280389
  C         3.5041080407        2.0555833211       -0.2072964270
  O         4.1372812369        2.5297361537        0.7092890169
  C         5.4310612874        2.0045625285       -1.9031633625
