      24
 i =        1, E =      -144.4642275073
  O         2.2801856521        0.0002917612       -2.2530776300
  O         3.1746510116        0.0003908202        0.0479875186
  S         2.0435562219        0.0002631965       -0.8334082316
  H        -0.2862579540       -1.2014655182       -2.2836152460
  H        -0.2865222902        1.2014313566       -2.2836021661
  H        -4.5942420294       -0.8935580237       -0.4601643639
  H        -4.0161699528       -0.0007346044        0.9729962918
  H        -4.5943306849        0.8926849069       -0.4597610925
 Cl         0.0845304463        1.6680571904        2.3452004243
 Cl         0.0850561936       -1.6681110364        2.3451920695
 Cl         0.9412760056       -2.9074302590       -0.3412988323
 Cl         0.9405455662        2.9076621527       -0.3412133979
  C         0.3338263831        0.6799361704        1.0606778102
  C         0.3340636721       -0.6798873539        1.0606784763
  C         0.6430136568       -1.2062194519       -0.3097980674
  C        -0.4866061237       -0.7809604499       -1.2683283668
  C        -0.4867918546        0.7808671538       -1.2683253890
  C         0.6427016870        1.2063679019       -0.3097767015
  N        -2.6998696937       -0.0003061164       -0.7044014619
  C        -1.8934358208        1.1839403268       -0.8382981088
  O        -2.3370780790        2.2985320339       -0.6684173587
  C        -1.8931610772       -1.1843609236       -0.8383085456
  O        -2.3365422069       -2.2990499617       -0.6683957702
  C        -4.0509597289       -0.0004852720       -0.1251458607
